-----BEGIN RSA PRIVATE KEY-----
MIIJKAIBAAKCAgEA3XpQYp6hJnIEYrnmAMVG8C+zCUB4syk+XLvYqYaiWo3Cm9Zh
l3auaqxcn7Y2mSRbJokoA87oTq64oWdjMvVmbeYD0A2pFE1mrm7iwxyksLvEAQGm
NRMId7tClV4xs0UXah0wROuY41ZPcwhg23mx7exFdHkgSgUf5ftQezUU+rdbSAWs
EwRL9j4vO8T2dOnLUH7oG502aFht0P9l+tmLvQiI7K7+oAVno3jxocFPbiXZ9S91
YJTDdlF34AUd5Px5TrRjyZvb3FoO+2RlPYYDKylkT7hwFUOIR5eQrhr+hZFn1NFe
1ZR+M6sWv9RYYAg2OqQZgK40G2XFhS+XwxyWOo4R/QP8yuAhBjerKStVsA+95jJT
7Qblq2xb/pPQAUp8O9BiwI14FULQQLtzb4GiBEnrYgAx2xZJOT/1ZOVSNUE132eM
y2cM6wlQlHQMzjThKEYxv2lEn1OIDpH90XA0/K9wivzAhexKOaLh1KV+xmmk9Efg
FMb+BCIREv0qkb1YYSsWTfm01m0pvrEy9UkBKL2jflsyNANfsDgD55oFnKdsAVS8
imVxlhpwNjUKQ/3VX10Vq3HzdPvztY+Z1J8XqVBOqRfyveR43y+OdLCEgcZxqxN8
r/MZHSQXJUFaEADAfx+0SdDf5ANgUNcIORw+LW7f1Zor3aVdkE0HdVij5dsCAwEA
AQKCAgBs/JW2Eg2HF7BkzMoMMwgXhcF6mglLUM5pX97cfW5DVWMgwLxBhpuJzsu9
pDL15VgdfHz+csEKhxxAANpl5zDCf9/8b9x2KyiOSe64yM2aUqu/OwqJL5aJJNM9
IZ8fcq50/2wTXkRcCssJ9mODXT1bsVr0V+61vhPWXndaSeLLBZObu37T1Nd0k2E2
7lPBcJMmR2z8ub5eVrWjlSqf6JHFMf//SJXwNPitDwUI7lGiCGpbJ0GBh3MwNCLj
UGFHn54qRsacHWBx7LdWqi7PubSxdqrwN/if3h2f7Uu7AXmiTM1lgqpCO9JmppiJ
SXs7to7JCJusIQ1vNgOe6K6rytN5jiF4orkUbmUvHVoDRThasH6peu6UZLT0AyEB
roIy0APG6ubfEfa72c9aM4nj3v/CObwK7qyKw9SHX58c04FNqz89MuqswMA4yoYu
MT3DDNmI+6ZCHnDT1yvtlSHTDEy86SxqL4zgGLMXiTjugvkwHoBtj9lV1DjbIEXu
XXHSwmcDFnDTNFeXbIdbg95y6qeMyo7HQxnfB6SbFK9S5++e/m2Z+HbwBGkomYst
VDoz1QY555fxB6f+vQcNu1n7NF7Ta8hHg3/edoNRNdByDqRvBeQTq6nyBoC0Bkxy
f1T/0ZG8/wupB/r6RphZaz4wA6is+bFqvHEaeLqvrMJJTFNZAQKCAQEA/7uIEUq9
TWQhUrSuewP+OckuyRqzMD0UgH+P2wYnrw6XqP0TkgXB/hzOxEYNg2FPVOO+xMvw
cOgKtp5w7rk4QDfcSEjF8jXjCRWobFwxcbL9edmTi3FOrb4ONmpv+lxW5fU5c/ox
3VxmbOV4+eJ80uTmgECA10lnvohsQaUayZ3utDlIqDmHMO/R9uzvrn0hBSL/8G0k
1cza25ubjMe3D3PnWHV/BsCvbNpxe6YEqQ+DsehitBVbxS8Efq0PGSIjpylCbIl3
71V5goZu5zJiu9dpTRFgEaabLpJkwjepkW7xORnhSjcTn1PAj9q5LPp8elCaeQ5o
nLi2sgVs2ZQAQQKCAQEA3bWcflfB2VdjFpUHEfWVQJWGOwIUAwFcvDmeNfCPn5lX
Ilmsd7GHaqaeB7gkuIM3qwORbetsDE8jGsaKpy9bLP5DPnJ2DaeAkq2i1J4E74h8
pTNHBlVaVPty9Tpg62jW5GGGbuuTgIcrTdwJZt60Lr4Njik9r4uXskk81DDsaqQh
KvYHOuJEW/jVOLGzzUR7qXyW+mgSnHA31FC9if2v4oSZxUakyNgjchl8BFiDux/y
Y3tz1Q3hzHboxYxOBaY1GepdKWBFmvLZxJQAhdgRyEu41L4LTwyYeqaTyqkNDHJR
XAhRKNEGnFMNgsuNCJTDyAInWVlZleYtKkXi+gAfGwKCAQAet6fga9nRMfXOuWU7
4X7n8gJspYhggvWzeZ8N7+9UV6xf4AY5w/dJTqyHZuK4pTeiOrjvao+3AChJRz7J
bfYTwKH1DMi6Dz72GGPioDBQN++6cygF19ZbiDis0JwitnS5qnr8M1FKBY9IBUhC
u7HCozwMq7LOKUMM39YhDHPrQ80oWLkhe8eBWU0fG9auXtlYhJu5hWKnS7P+LPLC
NjsG4CUpuvNHHF319UcsUwS8SeDHveIdP3OGe99OV/s4SaF+srYH03tUhC/UPdGU
c7joVzeOykd/10NMlMkFiyoTDgBrm3A0Oelhee3nWZ5kiLHq/0OOxuxJ5uYK/BvX
BrABAoIBAQCMadK86ZNptMCasrORmjl2d7xVbtGBvcEfrFYYz0wGxjS7GpPyEksz
LmbzeJo5CVGeS1o1hV4exZf0Az4Y+BMEgdvQlulRaH4zZyizA4kYsxZOAhW/Wxsk
q0N5MAnlzbYbWfCsGyKFyhWQ8AQ8VFtFJzSqjk/097GRRnTx5jI0r9IZxUt67YZh
wUw45cJ8BB1VkASGfpca4K9bFe+Uj0hva49/s2f1k32Pa7hxgCWdw3PdsXgAvRP+
TGjLhDp9tW/4A8gQxloO8jMdHqbeHaPVeK+MfPfojo+bThhXx4zuDxCb+uB7uzY2
lxr9dTDS+HSuHT8ShVYJa4e7OBuyPZV1AoIBAC+pN0BKpdBBpjfwItaLwK5qqsfz
E6Mpu1Pb1z1GmEWa++mfCduvLShAxpSKJkYIVumKjMX13CCjjc0Et5qQgf8bAwZ0
4Iui+kvDFqzkmVlvlOiQ8cAToIWuusXcFj5BObT/ItEZWg5fHOKLeuOdS7rE+D9Q
IBYE651tbKiwXQGJnIBhUHddYQ+7I7VT4lSgLre1SvfQ2kvtmb9bz/41PdXptY3x
/Gl+oF7XBSHQ/wE3Q7UoiyByY6sqmjNf9gTYFwvL+lbBknqDFTQoJJDIE0zT7HYb
7IrKMvnjUSOPjKfSPcbQaFvvvD5Un8zzTrbSn3ii8sILYumL3Q1wCWF9Ths=
-----END RSA PRIVATE KEY-----
