-----BEGIN RSA PRIVATE KEY-----
MIIEowIBAAKCAQEAv0m86zNWVywLq/0jI97PZijeQAtJahZ76/BO/tGtTVFsI8h9
i6LrJQ9WTaQxu/4H/qVXlOq2EqeDOucWJ3ddXTMOA4nFMTaDUrdN1in5ZgXNLxJ3
MXX6AKAXSODy+tzU4w84ORomMBMhHeiYxTuarG44KGcVMAW8RNezGJOlS3yiSCkO
uP26iY+T/r1QGs2Hjw52n0SE+L00998fcp/Xc4VmFNt23UrUeZDetOLkpOCCHg9A
k4BWK0vNGHkHS3HQ1gfhUGlnY90PTbZ0z8lWCaT8VCv1eQTNJpyyGgoqEP2bV5Mi
bL1RumA6Cn2MXgD7SJKQD5V9WW31LR0rjuHbZwIDAQABAoIBAQCGgBGfC2TdPHIk
h4Qq16LbAUdsnsMLHi4aMslIsSP65pJ0AqgMBAz07PjQ9O+ncLIsYhPX+MT3DuPe
Cdhw/aQfQSPMZxXJSbxC7/KB8NeU3eVtAL3ggES+JdLZgpo2vAnQccYlmHZbfUfe
4MpyfDuAnKtN9VVXg+DiQwyB7mbeUNaFfgF1ZZxa0gXfJpE/9U1ja2QGbwBZ+C/g
ANH5Xq4gU9HZSJ+iov4z0T7yKsmVn6LXzxki4+ph//q7meAYSF5Dt03bgVPSDHB6
zL8lDKkuD3hKf+p0yjsap+qgP8pCNZ7FNWbGM3VpdQHe4bMHNaC4dCOttW0CjyQC
OCH8P/vBAoGBAPSPbCjJpnUfYXxVyr003mOMWe+EAebGvKwifq4fzMVbyA6cdr6Z
vuY/fdiBrPU5KmMfwvoQf/dd0yWZ9qnwO6HOcmTjxArYhNi3lhBRT7BkKmWsU5sv
r8X7v+NbbciOZIPTAn63b3Ygw0dOBwAn91iI9pGmvo0e3t+yHNAkylsHAoGBAMg8
Yz1CMbwFWjRMGN1+X0lLbVOrcLZsOFWLb4JWufDQzXT/MYV2qJ6m4AEhlbOCNxrE
zK2yzNS+tsyBvqMkjgGssaBuI6sGG22js+gFJUOn14SSp9IV4o8QqyVgBvs3ygkN
bBRKk872P2SRUmvUNsHi4EOH9efsZ3tK/ZQHGYShAoGABRvN3ZhAwueR6L/+CS/G
iXvQESHHzGNQY6Qg01BUvbaqGiwIivi5NSQUY+Zpj4HPMdzi/MhFdAxgscNilLAw
/rNKTnM3kCZvt/s1xkd8i6m7/P25jV9Uo6UboAsz4uGeleZdgfog+O28RowJt2Ye
U5og1HAQQPBpJXEaCvsJwxcCgYARcum2+eC5oMHGkucLziphibgiNWtiCjYyhi8W
bZZQfPGag25+UePJx4L3tkSEWxGQPJwVeuJMm730Pk4ti07wqGrmLxLeoW6cdEqG
KoSfy62FOP502UFf9DTl0eNp2ue5ODk133XX8C+ABQXorZqD9NBUMjHknv45iURl
tOStYQKBgAQ8LpO88SfUuLoqYBfMi/XJPzicJ5DPYkY9t7XfkS3hr53OYC60c/Vz
pVRljkQy4tO8dOsv7Mego5+qTk985V1tPR1KqiCJkEfDkswg8r486vpFqrba/Owi
NamAVB6y9hdrp5B3NiqCSARnEwvQnWYTeGOdfzReGkkdy4bXerlS
-----END RSA PRIVATE KEY-----
