-----BEGIN RSA PRIVATE KEY-----
MIIG5AIBAAKCAYEA2mFEbtuTYH2Ks0g/Z8TKkVChd7wab+UIvQKEhgftqI04CUKf
6Z13Z/f/cj9XERU41nxOGZnlZAmLmNDddmqBSoGU34gC9bZl8a1hafHWzcI7q4R0
pqs7B7ZzakQhCOTC7INYqh3WX489fp0XxPsESThhFzhFlIrJ7rZ+cDldFiqDBoFr
aYuN5xVyOV0LHRiaGqbZzXXk8CU7wU190h1UC4xl3XMwQl6VNcVhKzDXy+B5xGQS
LYwKfh8V72rXDD41qGATD0NhRmcJDRe2EddqOomW/U2oYcpmSCb1ZgPjanfvXVLk
I8CW6YuaaFBKXAc2pq07G3QkuZWRDd6azswWz+AiUAyP49KGILwliIg0n1hbvwSC
C7hbMm+ZMfQqTKIyvxG24l+pVaWZRVbOov5e7gf/NMyiRF/8GWhbBb+JDFCPkbg/
n+l0vQUgd9/QUU6qUKsMMOtKxFWMj80wozLx644Pfe8E19N/6xcG6gnuuml/WAG9
g6KF+XPZy/sDzNOpAgMBAAECggGBAIw181gyBtfnAwzFEGCxy1WtrV5RGbBKH2gr
m6bqpD6aHSZk7oNyJN5OLmbOIDrJo2qi+Qoa81tdfZGqWObUzxplRI6Ypz3X1HBt
X6REMCR/1wvyyWrRed8j18qc35D0P+rXEjB3Y9KLB3Kprj88462XU08zRAlxauGn
rlqjmg7HUMT2h16GyZ9a97G4+Y++4gLGqgTu8wT1Av7DoEstpW6cwDKE6LFURPz3
M8IlZAh0ofnkPn+b8Ii1sMG9mUE1FtKNcKz31NdR270qKNnvTVbe4pWNPRVsJCh7
qz1RniyVHAZ9UcJbKelrtW18zuyK2/OwHRkZ83LkfUMgd+zq2XIURv/76StvlbjE
nKykLAcvNPuK0QogymyVGV9Qc8nsZGAmpHH6zd9JJ8Nf86AJvEIfedDxdH102XLB
t0zmoMiqTZK/JZdPzfDEcjl19VyAyUNYjSj8zSwl2q50YUlnsO1ptGmMMMQW0xFV
Hp8Bzc9ZC5nNWwbihW+mruJHlOSZ+QKBwQD3Seawy87E9CO9abBck7w8EdkdcGpe
Z+e7BxMCLWb34+g1Uvb2+nr3c0FDFopkunSmelSqE5bX3wy18wp2nFaVPp5e5Qk/
iyLAjISFIPP1OBHy2+soxJvTy2Kj9fMdGtGfEGIoGsoH+2smVSeuy0ViRLj8oe7J
AHSxcSu7pvY6yFYbcUR9XwTZd04j2YlAn3h4FSm863iTlzu1SJhORVK+G9zjdiLa
+BJRQOliYRWMWOZBVIJOBz0pYUebQac5DaMCgcEA4hKpV8JuJBrRdY8ahtfNvSxt
BCl+lYmwi5eqp7R9/d5I6fWt+hbK8MiFk0IebeCLvaoapdnQ4pPG1933RruqyJhi
B057AENwUfjQ6R2VjTUt8+ylmppb45D2u0uMQtzLzCmN6bEbQQQeZaFsKKWlejfk
QNWzIrvzXKeOypbXbN9xPs/LaOMPbj26AVScAZ6fnJY44mYRF7IYIAOwqzeD6i2e
3ZYoIkOBT9rDhfpRywmVYmdbuHNV1/HGfoKvKNZDAoHBAPHfwNrQnlAalBKim7QR
dJ40vu6ClCf+7bQLuVX53qs8qlXt7k2otjnu67iZBYh8r7heEw2/110SeDZHoMZf
KHkWJIWg9KjIiJdZWg11K+mAjF3FKYBYvios1zCUUtT29G3m8ntTqKSiEC4QQJ5B
iH4TxfSk1xCXd4xPq30CU/kvFroE0f7mv7GNdkqubgddc9HQsWBt2SRTWj144jA8
si/sxONfG7ydxBzhpuVpHFCIa78ez81OW05sLkP3tX6ijQKBwFVU1+iRMgOcv80Q
y+Fz2Wt7Nlbo1qfZBfNatwaAIUJOwdTVb+rC6a0C8zBHN7cfl39qko5hbe/n+ZkH
ZkujkG4Q3oeFfvX1fpLiSPCEwys+lG7KtyNo+iAmWosNlA60ypPwZ2l6+R+MT3Dr
AilBhPlh2V0DjI8ixFQHxuT/FKc6m8MqqcuYUP26fNf9uLj/x51SMnx6LB92kJac
7fViif89Ywaeo91y/39FwqFyf6cUofc3ri4sEo3k65ha+YR/gwKBwF56FB+9Qzne
uGPYkX9t4J5jmw1y7m4Zk3LBl+jclcQhxUTMNCfCO6UpX1p4JB0tD6lxbY8REFl6
5RWrV3mRDKoTfHwn8dBI8mwNELQezKKMLAq2cWuPy03q+ohFRLWs5mCmGkYmER+V
PjNkhDJJG8dsACupZyXIGiJmKlvT3KSXH1BSAXmrREPtVdu7Kmh6FLm6Xki/tezP
Adf3s4NBRKXwWJ7j+LqZjENByD6QeIx2PDIS1bEYbTMi24YikXgdpA==
-----END RSA PRIVATE KEY-----
